ac_opf/testcases/nesta_case30_ieee__api.m
%%%%%%%%%%%%%%%%%%%%%%%%%%%%%%%%%%%%%%%%%%%%%%%%%%%%%%%%%%%%%%%%%%%%%%%%%%%
%%%%                                                                  %%%%%
%%%%      NICTA Energy System Test Case Archive (NESTA) - v0.7.0      %%%%%
%%%%            Optimal Power Flow - Active Power Increase            %%%%%
%%%%                         05 - June - 2017                         %%%%%
%%%%                                                                  %%%%%
%%%%%%%%%%%%%%%%%%%%%%%%%%%%%%%%%%%%%%%%%%%%%%%%%%%%%%%%%%%%%%%%%%%%%%%%%%%
function mpc = nesta_case30_ieee__api
mpc.version = '2';
mpc.baseMVA = 100.0;

%% bus data
%	bus_i	type	Pd	Qd	Gs	Bs	area	Vm	Va	baseKV	zone	Vmax	Vmin
mpc.bus = [
	1	 3	 0.00	 0.00	 0.0	 0.0	 1	    1.06000	    0.00000	 132.0	 1	    1.06000	    0.94000;
	2	 2	 36.08	 12.70	 0.0	 0.0	 1	    1.02472	   -3.89871	 132.0	 1	    1.06000	    0.94000;
	3	 1	 3.99	 1.20	 0.0	 0.0	 1	    1.00987	  -10.54556	 132.0	 1	    1.06000	    0.94000;
	4	 1	 12.64	 1.60	 0.0	 0.0	 1	    1.00021	  -13.01932	 132.0	 1	    1.06000	    0.94000;
	5	 2	 156.64	 19.00	 0.0	 0.0	 1	    0.96532	  -20.12333	 132.0	 1	    1.06000	    0.94000;
	6	 1	 0.00	 0.00	 0.0	 0.0	 1	    1.01417	  -16.06932	 132.0	 1	    1.06000	    0.94000;
	7	 1	 37.91	 10.90	 0.0	 0.0	 1	    0.98352	  -18.69762	 132.0	 1	    1.06000	    0.94000;
	8	 2	 49.89	 30.00	 0.0	 0.0	 1	    1.06000	  -18.03013	 132.0	 1	    1.06000	    0.94000;
	9	 1	 0.00	 0.00	 0.0	 0.0	 1	    1.03470	  -21.30098	 1.0	 1	    1.06000	    0.94000;
	10	 1	 9.64	 2.00	 0.0	 19.0	 1	    1.02363	  -24.10105	 33.0	 1	    1.06000	    0.94000;
	11	 2	 0.00	 0.00	 0.0	 0.0	 1	    1.06000	  -21.30098	 11.0	 1	    1.06000	    0.94000;
	12	 1	 18.62	 7.50	 0.0	 0.0	 1	    1.02346	  -22.56142	 33.0	 1	    1.06000	    0.94000;
	13	 2	 0.00	 0.00	 0.0	 0.0	 1	    1.02323	  -22.56142	 11.0	 1	    1.06000	    0.94000;
	14	 1	 10.31	 1.60	 0.0	 0.0	 1	    1.00421	  -24.23353	 33.0	 1	    1.06000	    0.94000;
	15	 1	 13.64	 2.50	 0.0	 0.0	 1	    0.99997	  -24.49464	 33.0	 1	    1.06000	    0.94000;
	16	 1	 5.82	 1.80	 0.0	 0.0	 1	    1.01308	  -23.78888	 33.0	 1	    1.06000	    0.94000;
	17	 1	 14.97	 5.80	 0.0	 0.0	 1	    1.01404	  -24.41364	 33.0	 1	    1.06000	    0.94000;
	18	 1	 5.32	 0.90	 0.0	 0.0	 1	    0.99057	  -25.68236	 33.0	 1	    1.06000	    0.94000;
	19	 1	 15.80	 3.40	 0.0	 0.0	 1	    0.98972	  -26.02390	 33.0	 1	    1.06000	    0.94000;
	20	 1	 3.66	 0.70	 0.0	 0.0	 1	    0.99705	  -25.64607	 33.0	 1	    1.06000	    0.94000;
	21	 1	 29.10	 11.20	 0.0	 0.0	 1	    1.00710	  -24.98507	 33.0	 1	    1.06000	    0.94000;
	22	 1	 0.00	 0.00	 0.0	 0.0	 1	    1.00775	  -24.95004	 33.0	 1	    1.06000	    0.94000;
	23	 1	 5.32	 1.60	 0.0	 0.0	 1	    0.99124	  -25.29964	 33.0	 1	    1.06000	    0.94000;
	24	 1	 14.47	 6.70	 0.0	 4.3	 1	    0.99128	  -25.67125	 33.0	 1	    1.06000	    0.94000;
	25	 1	 0.00	 0.00	 0.0	 0.0	 1	    0.99861	  -25.03046	 33.0	 1	    1.06000	    0.94000;
	26	 1	 5.82	 2.30	 0.0	 0.0	 1	    0.97430	  -25.98833	 33.0	 1	    1.06000	    0.94000;
	27	 1	 0.00	 0.00	 0.0	 0.0	 1	    1.01469	  -24.08483	 33.0	 1	    1.06000	    0.94000;
	28	 1	 0.00	 0.00	 0.0	 0.0	 1	    1.01663	  -17.26635	 132.0	 1	    1.06000	    0.94000;
	29	 1	 3.99	 0.90	 0.0	 0.0	 1	    0.98418	  -26.30762	 33.0	 1	    1.06000	    0.94000;
	30	 1	 17.63	 1.90	 0.0	 0.0	 1	    0.96596	  -27.89584	 33.0	 1	    1.06000	    0.94000;
];

%% generator data
%	bus	Pg	Qg	Qmax	Qmin	Vg	mBase	status	Pmax	Pmin	Pc1	Pc2	Qc1min	Qc1max	Qc2min	Qc2max	ramp_agc	ramp_10	ramp_30	ramp_q	apf
mpc.gen = [
	1	 257.715	 28.522	 259.0	 -259.0	 1.06	 100.0	 1	 517	 0.0	 0.0	 0.0	 0.0	 0.0	 0.0	 0.0	 0.0	 0.0	 0.0	 0.0	 0.0; % NG
	2	 255.035	 -21.131	 560.0	 -560.0	 1.02472	 100.0	 1	 1120	 0.0	 0.0	 0.0	 0.0	 0.0	 0.0	 0.0	 0.0	 0.0	 0.0	 0.0	 0.0; % COW
	5	 0.0	 33.043	 40.0	 -40.0	 0.96532	 100.0	 1	 0	 0.0	 0.0	 0.0	 0.0	 0.0	 0.0	 0.0	 0.0	 0.0	 0.0	 0.0	 0.0; % SYNC
	8	 0.0	 181.539	 230.4	 -230.4	 1.06	 100.0	 1	 0	 0.0	 0.0	 0.0	 0.0	 0.0	 0.0	 0.0	 0.0	 0.0	 0.0	 0.0	 0.0; % SYNC
	11	 0.0	 12.891	 24.0	 -18.0	 1.06	 100.0	 1	 0	 0.0	 0.0	 0.0	 0.0	 0.0	 0.0	 0.0	 0.0	 0.0	 0.0	 0.0	 0.0; % SYNC
	13	 0.0	 -0.172	 24.0	 -6.0	 1.02323	 100.0	 1	 0	 0.0	 0.0	 0.0	 0.0	 0.0	 0.0	 0.0	 0.0	 0.0	 0.0	 0.0	 0.0; % SYNC
];

%% generator cost data
%	2	startup	shutdown	n	c(n-1)	...	c0
mpc.gencost = [
	2	 0.0	 0.0	 3	   0.000000	   0.769056	   0.000000; % NG
	2	 0.0	 0.0	 3	   0.000000	   0.850065	   0.000000; % COW
	2	 0.0	 0.0	 3	   0.000000	   0.000000	   0.000000; % SYNC
	2	 0.0	 0.0	 3	   0.000000	   0.000000	   0.000000; % SYNC
	2	 0.0	 0.0	 3	   0.000000	   0.000000	   0.000000; % SYNC
	2	 0.0	 0.0	 3	   0.000000	   0.000000	   0.000000; % SYNC
];

%% branch data
%	fbus	tbus	r	x	b	rateA	rateB	rateC	ratio	angle	status	angmin	angmax
mpc.branch = [
	1	 2	 0.0192	 0.0575	 0.0528	 138.0	 138.0	 138.0	 0.0	 0.0	 1	 -30.0	 30.0;
	1	 3	 0.0452	 0.1652	 0.0408	 152.0	 152.0	 152.0	 0.0	 0.0	 1	 -30.0	 30.0;
	2	 4	 0.057	 0.1737	 0.0368	 139.0	 139.0	 139.0	 0.0	 0.0	 1	 -30.0	 30.0;
	3	 4	 0.0132	 0.0379	 0.0084	 135.0	 135.0	 135.0	 0.0	 0.0	 1	 -30.0	 30.0;
	2	 5	 0.0472	 0.1983	 0.0418	 144.0	 144.0	 144.0	 0.0	 0.0	 1	 -30.0	 30.0;
	2	 6	 0.0581	 0.1763	 0.0374	 139.0	 139.0	 139.0	 0.0	 0.0	 1	 -30.0	 30.0;
	4	 6	 0.0119	 0.0414	 0.009	 148.0	 148.0	 148.0	 0.0	 0.0	 1	 -30.0	 30.0;
	5	 7	 0.046	 0.116	 0.0204	 127.0	 127.0	 127.0	 0.0	 0.0	 1	 -30.0	 30.0;
	6	 7	 0.0267	 0.082	 0.017	 140.0	 140.0	 140.0	 0.0	 0.0	 1	 -30.0	 30.0;
	6	 8	 0.012	 0.042	 0.009	 148.0	 148.0	 148.0	 0.0	 0.0	 1	 -30.0	 30.0;
	6	 9	 0.0	 0.208	 0.0	 142.0	 142.0	 142.0	 0.978	 0.0	 1	 -30.0	 30.0;
	6	 10	 0.0	 0.556	 0.0	 53.0	 53.0	 53.0	 0.969	 0.0	 1	 -30.0	 30.0;
	9	 11	 0.0	 0.208	 0.0	 142.0	 142.0	 142.0	 0.0	 0.0	 1	 -30.0	 30.0;
	9	 10	 0.0	 0.11	 0.0	 267.0	 267.0	 267.0	 0.0	 0.0	 1	 -30.0	 30.0;
	4	 12	 0.0	 0.256	 0.0	 115.0	 115.0	 115.0	 0.932	 0.0	 1	 -30.0	 30.0;
	12	 13	 0.0	 0.14	 0.0	 210.0	 210.0	 210.0	 0.0	 0.0	 1	 -30.0	 30.0;
	12	 14	 0.1231	 0.2559	 0.0	 29.0	 29.0	 29.0	 0.0	 0.0	 1	 -30.0	 30.0;
	12	 15	 0.0662	 0.1304	 0.0	 29.0	 29.0	 29.0	 0.0	 0.0	 1	 -30.0	 30.0;
	12	 16	 0.0945	 0.1987	 0.0	 30.0	 30.0	 30.0	 0.0	 0.0	 1	 -30.0	 30.0;
	14	 15	 0.221	 0.1997	 0.0	 20.0	 20.0	 20.0	 0.0	 0.0	 1	 -30.0	 30.0;
	16	 17	 0.0524	 0.1923	 0.0	 38.0	 38.0	 38.0	 0.0	 0.0	 1	 -30.0	 30.0;
	15	 18	 0.1073	 0.2185	 0.0	 29.0	 29.0	 29.0	 0.0	 0.0	 1	 -30.0	 30.0;
	18	 19	 0.0639	 0.1292	 0.0	 29.0	 29.0	 29.0	 0.0	 0.0	 1	 -30.0	 30.0;
	19	 20	 0.034	 0.068	 0.0	 29.0	 29.0	 29.0	 0.0	 0.0	 1	 -30.0	 30.0;
	10	 20	 0.0936	 0.209	 0.0	 30.0	 30.0	 30.0	 0.0	 0.0	 1	 -30.0	 30.0;
	10	 17	 0.0324	 0.0845	 0.0	 33.0	 33.0	 33.0	 0.0	 0.0	 1	 -30.0	 30.0;
	10	 21	 0.0348	 0.0749	 0.0	 30.0	 30.0	 30.0	 0.0	 0.0	 1	 -30.0	 30.0;
	10	 22	 0.0727	 0.1499	 0.0	 29.0	 29.0	 29.0	 0.0	 0.0	 1	 -30.0	 30.0;
	21	 22	 0.0116	 0.0236	 0.0	 29.0	 29.0	 29.0	 0.0	 0.0	 1	 -30.0	 30.0;
	15	 23	 0.1	 0.202	 0.0	 29.0	 29.0	 29.0	 0.0	 0.0	 1	 -30.0	 30.0;
	22	 24	 0.115	 0.179	 0.0	 26.0	 26.0	 26.0	 0.0	 0.0	 1	 -30.0	 30.0;
	23	 24	 0.132	 0.27	 0.0	 29.0	 29.0	 29.0	 0.0	 0.0	 1	 -30.0	 30.0;
	24	 25	 0.1885	 0.3292	 0.0	 27.0	 27.0	 27.0	 0.0	 0.0	 1	 -30.0	 30.0;
	25	 26	 0.2544	 0.38	 0.0	 25.0	 25.0	 25.0	 0.0	 0.0	 1	 -30.0	 30.0;
	25	 27	 0.1093	 0.2087	 0.0	 28.0	 28.0	 28.0	 0.0	 0.0	 1	 -30.0	 30.0;
	28	 27	 0.0	 0.396	 0.0	 75.0	 75.0	 75.0	 0.968	 0.0	 1	 -30.0	 30.0;
	27	 29	 0.2198	 0.4153	 0.0	 28.0	 28.0	 28.0	 0.0	 0.0	 1	 -30.0	 30.0;
	27	 30	 0.3202	 0.6027	 0.0	 28.0	 28.0	 28.0	 0.0	 0.0	 1	 -30.0	 30.0;
	29	 30	 0.2399	 0.4533	 0.0	 28.0	 28.0	 28.0	 0.0	 0.0	 1	 -30.0	 30.0;
	8	 28	 0.0636	 0.2	 0.0428	 140.0	 140.0	 140.0	 0.0	 0.0	 1	 -30.0	 30.0;
	6	 28	 0.0169	 0.0599	 0.013	 149.0	 149.0	 149.0	 0.0	 0.0	 1	 -30.0	 30.0;
];

% INFO    : === Translation Options ===
% INFO    : Load Model:                  from file ./nesta_case30_ieee.m.api.sol
% INFO    : Gen Active Capacity Model:   stat
% INFO    : Gen Reactive Capacity Model: al50ag
% INFO    : Gen Active Cost Model:       stat
% INFO    : 
% INFO    : === Load Replacement Notes ===
% INFO    : Bus 1	: Pd=0.0, Qd=0.0 -> Pd=0.00, Qd=0.00
% INFO    : Bus 2	: Pd=21.7, Qd=12.7 -> Pd=36.08, Qd=12.70
% INFO    : Bus 3	: Pd=2.4, Qd=1.2 -> Pd=3.99, Qd=1.20
% INFO    : Bus 4	: Pd=7.6, Qd=1.6 -> Pd=12.64, Qd=1.60
% INFO    : Bus 5	: Pd=94.2, Qd=19.0 -> Pd=156.64, Qd=19.00
% INFO    : Bus 6	: Pd=0.0, Qd=0.0 -> Pd=0.00, Qd=0.00
% INFO    : Bus 7	: Pd=22.8, Qd=10.9 -> Pd=37.91, Qd=10.90
% INFO    : Bus 8	: Pd=30.0, Qd=30.0 -> Pd=49.89, Qd=30.00
% INFO    : Bus 9	: Pd=0.0, Qd=0.0 -> Pd=0.00, Qd=0.00
% INFO    : Bus 10	: Pd=5.8, Qd=2.0 -> Pd=9.64, Qd=2.00
% INFO    : Bus 11	: Pd=0.0, Qd=0.0 -> Pd=0.00, Qd=0.00
% INFO    : Bus 12	: Pd=11.2, Qd=7.5 -> Pd=18.62, Qd=7.50
% INFO    : Bus 13	: Pd=0.0, Qd=0.0 -> Pd=0.00, Qd=0.00
% INFO    : Bus 14	: Pd=6.2, Qd=1.6 -> Pd=10.31, Qd=1.60
% INFO    : Bus 15	: Pd=8.2, Qd=2.5 -> Pd=13.64, Qd=2.50
% INFO    : Bus 16	: Pd=3.5, Qd=1.8 -> Pd=5.82, Qd=1.80
% INFO    : Bus 17	: Pd=9.0, Qd=5.8 -> Pd=14.97, Qd=5.80
% INFO    : Bus 18	: Pd=3.2, Qd=0.9 -> Pd=5.32, Qd=0.90
% INFO    : Bus 19	: Pd=9.5, Qd=3.4 -> Pd=15.80, Qd=3.40
% INFO    : Bus 20	: Pd=2.2, Qd=0.7 -> Pd=3.66, Qd=0.70
% INFO    : Bus 21	: Pd=17.5, Qd=11.2 -> Pd=29.10, Qd=11.20
% INFO    : Bus 22	: Pd=0.0, Qd=0.0 -> Pd=0.00, Qd=0.00
% INFO    : Bus 23	: Pd=3.2, Qd=1.6 -> Pd=5.32, Qd=1.60
% INFO    : Bus 24	: Pd=8.7, Qd=6.7 -> Pd=14.47, Qd=6.70
% INFO    : Bus 25	: Pd=0.0, Qd=0.0 -> Pd=0.00, Qd=0.00
% INFO    : Bus 26	: Pd=3.5, Qd=2.3 -> Pd=5.82, Qd=2.30
% INFO    : Bus 27	: Pd=0.0, Qd=0.0 -> Pd=0.00, Qd=0.00
% INFO    : Bus 28	: Pd=0.0, Qd=0.0 -> Pd=0.00, Qd=0.00
% INFO    : Bus 29	: Pd=2.4, Qd=0.9 -> Pd=3.99, Qd=0.90
% INFO    : Bus 30	: Pd=10.6, Qd=1.9 -> Pd=17.63, Qd=1.90
% INFO    : 
% INFO    : === Generator Setpoint Replacement Notes ===
% INFO    : Gen at bus 1	: Pg=218.839, Qg=9.373 -> Pg=254.0, Qg=49.0
% INFO    : Gen at bus 2	: Pg=80.05, Qg=24.589 -> Pg=261.0, Qg=-46.0
% INFO    : Gen at bus 5	: Pg=0.0, Qg=32.487 -> Pg=0.0, Qg=32.0
% INFO    : Gen at bus 8	: Pg=0.0, Qg=40.0 -> Pg=0.0, Qg=192.0
% INFO    : Gen at bus 11	: Pg=0.0, Qg=11.87 -> Pg=0.0, Qg=15.0
% INFO    : Gen at bus 13	: Pg=0.0, Qg=10.414 -> Pg=0.0, Qg=-1.0
% INFO    : 
% INFO    : === Generator Reactive Capacity Atleast Setpoint Value Notes ===
% INFO    : Gen at bus 1	: Qg 49.0, Qmin 0.0, Qmax 10.0 -> Qmin -58.8, Qmax 58.8
% INFO    : Gen at bus 2	: Qg -46.0, Qmin -40.0, Qmax 50.0 -> Qmin -55.2, Qmax 50.0
% INFO    : Gen at bus 8	: Qg 192.0, Qmin -10.0, Qmax 40.0 -> Qmin -230.4, Qmax 230.4
% INFO    : Gen at bus 11	: Qg 15.0, Qmin -6.0, Qmax 24.0 -> Qmin -18.0, Qmax 24.0
% INFO    : 
% INFO    : === Generator Classification Notes ===
% INFO    : SYNC   4   -     0.00
% INFO    : COW    1   -    50.68
% INFO    : NG     1   -    49.32
% INFO    : 
% INFO    : === Generator Active Capacity Stat Model Notes ===
% INFO    : Gen at bus 1 - NG	: Pg=254.0, Pmax=784.0 -> Pmax=517   samples: 16
% INFO    : Gen at bus 2 - COW	: Pg=261.0, Pmax=100.0 -> Pmax=1120   samples: 2
% INFO    : Gen at bus 5 - SYNC	: Pg=0.0, Pmax=0.0 -> Pmax=0   samples: 0
% INFO    : Gen at bus 8 - SYNC	: Pg=0.0, Pmax=0.0 -> Pmax=0   samples: 0
% INFO    : Gen at bus 11 - SYNC	: Pg=0.0, Pmax=0.0 -> Pmax=0   samples: 0
% INFO    : Gen at bus 13 - SYNC	: Pg=0.0, Pmax=0.0 -> Pmax=0   samples: 0
% INFO    : 
% INFO    : === Generator Active Capacity LB Model Notes ===
% INFO    : 
% INFO    : === Generator Reactive Capacity Atleast Max 50 Percent Active Model Notes ===
% INFO    : Gen at bus 1 - NG	: Pmax 517.0, Qmin -58.8, Qmax 58.8 -> Qmin -259.0, Qmax 259.0
% INFO    : Gen at bus 2 - COW	: Pmax 1120.0, Qmin -55.2, Qmax 50.0 -> Qmin -560.0, Qmax 560.0
% INFO    : 
% INFO    : === Generator Active Cost Stat Model Notes ===
% INFO    : Updated Generator Cost: NG - 0.0 0.521378 0.0 -> 0 0.769055792643 0
% INFO    : Updated Generator Cost: COW - 0.0 1.135166 0.0 -> 0 0.850064859401 0
% INFO    : Updated Generator Cost: SYNC - 0.0 0.0 0.0 -> 0 0.0 0
% INFO    : Updated Generator Cost: SYNC - 0.0 0.0 0.0 -> 0 0.0 0
% INFO    : Updated Generator Cost: SYNC - 0.0 0.0 0.0 -> 0 0.0 0
% INFO    : Updated Generator Cost: SYNC - 0.0 0.0 0.0 -> 0 0.0 0
% INFO    : 
% INFO    : === Voltage Setpoint Replacement Notes ===
% INFO    : Bus 1	: V=1.06, theta=0.0 -> V=1.06, theta=0.0
% INFO    : Bus 2	: V=1.03592, theta=-4.11149 -> V=1.02472, theta=-3.89871
% INFO    : Bus 3	: V=1.01502, theta=-6.85372 -> V=1.00987, theta=-10.54556
% INFO    : Bus 4	: V=1.00446, theta=-8.44573 -> V=1.00021, theta=-13.01932
% INFO    : Bus 5	: V=0.99748, theta=-13.13219 -> V=0.96532, theta=-20.12333
% INFO    : Bus 6	: V=1.00169, theta=-10.1567 -> V=1.01417, theta=-16.06932
% INFO    : Bus 7	: V=0.99208, theta=-11.91709 -> V=0.98352, theta=-18.69762
% INFO    : Bus 8	: V=1.00241, theta=-10.93464 -> V=1.06, theta=-18.03013
% INFO    : Bus 9	: V=1.03671, theta=-13.26617 -> V=1.0347, theta=-21.30098
% INFO    : Bus 10	: V=1.0322, theta=-14.89731 -> V=1.02363, theta=-24.10105
% INFO    : Bus 11	: V=1.06, theta=-13.26617 -> V=1.06, theta=-21.30098
% INFO    : Bus 12	: V=1.04625, theta=-14.18876 -> V=1.02346, theta=-22.56142
% INFO    : Bus 13	: V=1.06, theta=-14.18876 -> V=1.02323, theta=-22.56142
% INFO    : Bus 14	: V=1.03103, theta=-15.09457 -> V=1.00421, theta=-24.23353
% INFO    : Bus 15	: V=1.02621, theta=-15.17833 -> V=0.99997, theta=-24.49464
% INFO    : Bus 16	: V=1.03259, theta=-14.7532 -> V=1.01308, theta=-23.78888
% INFO    : Bus 17	: V=1.02725, theta=-15.07477 -> V=1.01404, theta=-24.41364
% INFO    : Bus 18	: V=1.01602, theta=-15.79034 -> V=0.99057, theta=-25.68236
% INFO    : Bus 19	: V=1.01317, theta=-15.95831 -> V=0.98972, theta=-26.0239
% INFO    : Bus 20	: V=1.01714, theta=-15.75155 -> V=0.99705, theta=-25.64607
% INFO    : Bus 21	: V=1.01982, theta=-15.35269 -> V=1.0071, theta=-24.98507
% INFO    : Bus 22	: V=1.02041, theta=-15.33862 -> V=1.00775, theta=-24.95004
% INFO    : Bus 23	: V=1.01532, theta=-15.56402 -> V=0.99124, theta=-25.29964
% INFO    : Bus 24	: V=1.0093, theta=-15.72599 -> V=0.99128, theta=-25.67125
% INFO    : Bus 25	: V=1.00621, theta=-15.2914 -> V=0.99861, theta=-25.03046
% INFO    : Bus 26	: V=0.98833, theta=-15.72056 -> V=0.9743, theta=-25.98833
% INFO    : Bus 27	: V=1.01294, theta=-14.75622 -> V=1.01469, theta=-24.08483
% INFO    : Bus 28	: V=0.99824, theta=-10.79564 -> V=1.01663, theta=-17.26635
% INFO    : Bus 29	: V=0.99288, theta=-16.01184 -> V=0.98418, theta=-26.30762
% INFO    : Bus 30	: V=0.98128, theta=-16.91371 -> V=0.96596, theta=-27.89584
% INFO    : 
% INFO    : === Generator Setpoint Replacement Notes ===
% INFO    : Gen at bus 1	: Pg=254.0, Qg=49.0 -> Pg=257.715, Qg=28.522
% INFO    : Gen at bus 1	: Vg=1.06 -> Vg=1.06
% INFO    : Gen at bus 2	: Pg=261.0, Qg=-46.0 -> Pg=255.035, Qg=-21.131
% INFO    : Gen at bus 2	: Vg=1.03592 -> Vg=1.02472
% INFO    : Gen at bus 5	: Pg=0.0, Qg=32.0 -> Pg=0.0, Qg=33.043
% INFO    : Gen at bus 5	: Vg=0.99748 -> Vg=0.96532
% INFO    : Gen at bus 8	: Pg=0.0, Qg=192.0 -> Pg=0.0, Qg=181.539
% INFO    : Gen at bus 8	: Vg=1.00241 -> Vg=1.06
% INFO    : Gen at bus 11	: Pg=0.0, Qg=15.0 -> Pg=0.0, Qg=12.891
% INFO    : Gen at bus 11	: Vg=1.06 -> Vg=1.06
% INFO    : Gen at bus 13	: Pg=0.0, Qg=-1.0 -> Pg=0.0, Qg=-0.172
% INFO    : Gen at bus 13	: Vg=1.06 -> Vg=1.02323
% INFO    : 
% INFO    : === Writing Matpower Case File Notes ===
